$DATA1 SOURCE='HSPICE' VERSION='P-2019.06-SP1-1 win64' PARAM_COUNT=0
.TITLE 'case 20:'
 tf               tr               temper           alter#          
  2.590e-11        2.898e-11         25.0000        20              
