 ****** HSPICE -- P-2019.06-SP1-1 win64 (Sep 27 2019) ******                    
  Copyright (c) 1986 - 2024 by Synopsys, Inc. All Rights Reserved.              
  This software and the associated documentation are proprietary
  to Synopsys, Inc. This software may only be used in accordance
  with the terms and conditions of a written license agreement with
  Synopsys, Inc. All other use, reproduction, or distribution of
  this software is strictly prohibited.
  Input File: part 3.sp                                                         
  Command line options: C:\synopsys\Hspice_P-2019.06-SP1-1\WIN64\hspice.com -i part 3.sp -o C:\Users\IDEAL\Desktop\VLSI_P2\VLSI_P2\part 3.lis
  Start time: Tue May  7 21:47:20 2024
  lic:  
  lic: FLEXlm: SDK_12.3 
  lic: USER:   IDEAL                HOSTNAME: DESKTOP-VQ2IIPN 
  lic: HOSTID: 000c294610b7         PID:      7808 
  lic: Using FLEXlm license file: 
  lic: 27000@DESKTOP-VQ2IIPN 
  lic: Checkout 1 hspice 
  lic: License/Maintenance for hspice will expire on 30-dec-2030/2030.12 
  lic: 1(in_use)/99(total) FLOATING license(s) on SERVER 27000@DESKTOP-VQ2IIPN 
  lic:   
1****** HSPICE -- P-2019.06-SP1-1 win64 (Sep 27 2019) ******                    
 ******  
 **********************

 ****** circuit name directory
 circuit number to circuit name directory
   number circuitname                     definition         multiplier
        0 main circuit
        1 x1.                             nand2              1.00 
        2 x2.                             nand3              1.00 
        3 x3.                             nand3              1.00 
        4 x4.                             nand3              1.00 
        5 x5.                             nor2               1.00 
        6 x6.                             nor2               1.00 
        7 x7.                             inv                1.00 
 ******  
 **********************

 ****** mos   model parameters tnom=  25.000 temp=  25.000 ******
 Model file: 32nm_bulk.pm
 Model line:            7
 Model Name: nmos  
 BSIM4 Model (Level 54)
    MOBMOD = 0
    BINUNIT = 1
    PARAMCHK = 1
    CAPMOD = 2
    DIOMOD = 1
    RDSMOD = 0
    TRNQSMOD = 0
    ACNQSMOD = 0
    RBODYMOD = 1
    RGATEMOD = 1
    PERMOD = 1
    GEOMOD = 1
    RGEOMOD = 0
    FNOIMOD = 1
    TNOIMOD = 0
    IGCMOD = 1
    IGBMOD = 1
    STIMOD = 0
    VERSION =      4 
    TOXREF = 1.65e-09 
    TOXE = 1.65e-09 
    TOXP =  1e-09 
    TOXM = 1.65e-09 
    DTOX = 6.5e-10 
    EPSROX =    3.9 
    CDSC =      0 
    CDSCB =      0 
    CDSCD =      0 
    CIT =      0 
    NFACTOR =    2.3 
    XJ =  1e-08 
    VSAT = 1.785e+05 
    A0 =      1 
    AGS =      0 
    A1 =      0 
    A2 =      1 
    AT = 3.3e+04 
    KETA =   0.04 
    NSUB =  6e+16 
    NDEP = 4.12e+18 
    NSD =  2e+20 
    NGATE =  2e+20 
    GAMMA1 =      0 
    GAMMA2 =      0 
    VBX =      0 
    VBM =     -3 
    XT = 1.55e-07 
    K1 =    0.4 
    KT1 =  -0.11 
    KT1L =      0 
    KT2 =  0.022 
    K2 =      0 
    K3 =      0 
    K3B =      0 
    LPE0 =      0 
    LPEB =      0 
    DVTP0 =  1e-11 
    DVTP1 =    0.1 
    W0 = 2.5e-06 
    DVT0 =      1 
    DVT1 =      2 
    DVT2 =      0 
    DVT0W =      0 
    DVT1W =      0 
    DVT2W =      0 
    DROUT =    0.5 
    DSUB =    0.1 
    VTH0 = 0.5088 
    EU =   1.67 
    UA =  6e-10 
    UA1 = 4.31e-09 
    UB = 1.2e-18 
    UB1 = 7.61e-18 
    UC =      0 
    UC1 = -5.6e-11 
    U0 = 0.0389 
    UTE =   -1.5 
    VOFF =  -0.13 
    VOFFL =      0 
    MINV =   0.05 
    FPROUT =    0.2 
    PDITS =   0.01 
    PDITSD =   0.23 
    PDITSL = 2.3e+06 
    DELTA =   0.01 
    RDSW =    150 
    RDSWMIN =      0 
    RDWMIN =      0 
    RSWMIN =      0 
    RDW =     75 
    RSW =     75 
    PRWG =      0 
    PRWB =      0 
    PRT =      0 
    ETA0 = 0.0042 
    ETAB =      0 
    PCLM =   0.02 
    PDIBLC1 =  0.001 
    PDIBLC2 =  0.001 
    PDIBLCB = -0.005 
    PSCBE1 = 8.14e+08 
    PSCBE2 =  1e-07 
    PVAG =  1e-20 
    WR =      1 
    DWG =      0 
    DWB =      0 
    XW =      0 
    XWREF =      0 
    XL = -1.4e-08 
    XLREF = -1.4e-08 
    B0 =      0 
    B1 =      0 
    ALPHA0 =  0.074 
    ALPHA1 =  0.005 
    AGIDL = 0.0002 
    BGIDL = 2.1e+09 
    CGIDL = 0.0002 
    PHIN =      0 
    EGIDL =    0.8 
    AIGC =  0.012 
    BIGC = 0.0028 
    CIGC =  0.002 
    AIGSD =  0.012 
    BIGSD = 0.0028 
    CIGSD =  0.002 
    AIGBACC =  0.012 
    BIGBACC = 0.0028 
    CIGBACC =  0.002 
    AIGBINV =  0.014 
    BIGBINV =  0.004 
    CIGBINV =  0.004 
    NIGC =      1 
    NIGBINV =      3 
    NIGBACC =      1 
    NTOX =      1 
    EIGBINV =    1.1 
    PIGCD =      1 
    POXEDGE =      1 
    XRCRG1 =     12 
    TNOIA =    1.5 
    TNOIB =    3.5 
    NTNOI =      1 
    XRCRG2 =      5 
    BETA0 =     30 
    IJTHDFWD =   0.01 
    IJTHSFWD =   0.01 
    IJTHDREV =  0.001 
    IJTHSREV =  0.001 
    XJBVD =      1 
    XJBVS =      1 
    BVD =     10 
    BVS =     10 
    VFB =  -0.55 
    GBMIN =  1e-10 
    RBDB =     15 
    RBPB =      5 
    RBSB =     15 
    RBPS =     15 
    RBPD =     15 
    CGSL = 2.653e-10 
    CGDL = 2.653e-10 
    CKAPPAS =   0.03 
    CKAPPAD =   0.03 
    CF = 1.208e-10 
    CLC =  1e-07 
    CLE =    0.6 
    DWC =  5e-09 
    DLC = 2.7e-09 
    DLCIG = 2.7e-09 
    DWJ =      0 
    VFBCV =     -1 
    ACDE =      1 
    MOIN =     15 
    NOFF =    0.9 
    VOFFCV =   0.02 
    DMCG =      0 
    DMCI =      0 
    DMDG =      0 
    DMCGT =      0 
    XGW =      0 
    XGL =      0 
    RSHG =    0.4 
    NGCON =      1 
    TCJ =  0.001 
    TPB =  0.005 
    TCJSW =  0.001 
    TPBSW =  0.005 
    TCJSWG =  0.001 
    TPBSWG =  0.005 
    SK0 =      0 
    SK1 =      0 
    SK2 =      0 
    SL =  2e-06 
    SW =  2e-06 
    K =      0 
    TNOM =  300.1 
    CGSO = 8.5e-11 
    CGDO = 8.5e-11 
    CGBO = 2.56e-11 
    XPART =      0 
    RSH =      5 
    JSS = 0.0001 
    JSWS =  1e-11 
    JSWGS =  1e-10 
    PBS =      1 
    MJS =    0.5 
    PBSWS =      1 
    MJSWS =   0.33 
    CJS = 0.0005 
    CJSWS =  5e-10 
    NJS =      1 
    PBSWGS =      1 
    MJSWGS =   0.33 
    CJSWGS =  3e-10 
    XTIS =      3 
    JSD = 0.0001 
    JSWD =  1e-11 
    JSWGD =  1e-10 
    PBD =      1 
    MJD =    0.5 
    PBSWD =      1 
    MJSWD =   0.33 
    CJD = 0.0005 
    CJSWD =  5e-10 
    NJD =      1 
    PBSWGD =      1 
    MJSWGD =   0.33 
    CJSWGD =  5e-10 
    XTID =      3 
    LMLT =      1 
    WMLT =      1 
    LINT = 2.7e-09 
    LL =      0 
    LLC =      0 
    LLN =      1 
    LW =      0 
    LWC =      0 
    LWN =      1 
    LWL =      0 
    LWLC =      0 
    LMIN =      0 
    LMAX =      1 
    WINT =  5e-09 
    WL =      0 
    WLC =      0 
    WLN =      1 
    WW =      0 
    WWC =      0 
    WWN =      1 
    WWL =      0 
    WWLC =      0 
    WMIN =      0 
    WMAX =      1 
    NOIA = 6.25e+41 
    NOIB = 3.125e+26 
    NOIC = 8.75e+09 
    EM = 4.1e+07 
    EF =      1 
    AF =      1 
    KF =      0 
    TRS =      0 
    TRD =      0 
 Model file: 32nm_bulk.pm
 Model line:           78
 Model Name: pmos  
 BSIM4 Model (Level 54)
    MOBMOD = 0
    BINUNIT = 1
    PARAMCHK = 1
    CAPMOD = 2
    DIOMOD = 1
    RDSMOD = 0
    TRNQSMOD = 0
    ACNQSMOD = 0
    RBODYMOD = 1
    RGATEMOD = 1
    PERMOD = 1
    GEOMOD = 1
    RGEOMOD = 0
    FNOIMOD = 1
    TNOIMOD = 0
    IGCMOD = 1
    IGBMOD = 1
    STIMOD = 0
    VERSION =      4 
    TOXREF = 1.75e-09 
    TOXE = 1.75e-09 
    TOXP =  1e-09 
    TOXM = 1.75e-09 
    DTOX = 7.5e-10 
    EPSROX =    3.9 
    CDSC =      0 
    CDSCB =      0 
    CDSCD =      0 
    CIT =      0 
    NFACTOR =    2.3 
    XJ =  1e-08 
    VSAT =  7e+04 
    A0 =      1 
    AGS =  1e-20 
    A1 =      0 
    A2 =      1 
    AT = 3.3e+04 
    KETA = -0.047 
    NSUB =  6e+16 
    NDEP = 3.07e+18 
    NSD =  2e+20 
    NGATE =  2e+20 
    GAMMA1 =      0 
    GAMMA2 =      0 
    VBX =      0 
    VBM =     -3 
    XT = 1.55e-07 
    K1 =    0.4 
    KT1 =  -0.11 
    KT1L =      0 
    KT2 =  0.022 
    K2 =  -0.01 
    K3 =      0 
    K3B =      0 
    LPE0 =      0 
    LPEB =      0 
    DVTP0 =  1e-11 
    DVTP1 =   0.05 
    W0 = 2.5e-06 
    DVT0 =      1 
    DVT1 =      2 
    DVT2 = -0.032 
    DVT0W =      0 
    DVT1W =      0 
    DVT2W =      0 
    DROUT =    0.6 
    DSUB =    0.1 
    VTH0 =  -0.45 
    EU =      1 
    UA =  2e-09 
    UA1 = 4.31e-09 
    UB =  5e-19 
    UB1 = 7.61e-18 
    UC =      0 
    UC1 = -5.6e-11 
    U0 = 0.00355 
    UTE =   -1.5 
    VOFF = -0.126 
    VOFFL =      0 
    MINV =   0.05 
    FPROUT =    0.2 
    PDITS =   0.08 
    PDITSD =   0.23 
    PDITSL = 2.3e+06 
    DELTA =   0.01 
    RDSW =    150 
    RDSWMIN =      0 
    RDWMIN =      0 
    RSWMIN =      0 
    RDW =     75 
    RSW =     75 
    PRWG =      0 
    PRWB =      0 
    PRT =      0 
    ETA0 = 0.0042 
    ETAB =      0 
    PCLM =    0.1 
    PDIBLC1 =  0.001 
    PDIBLC2 =  0.001 
    PDIBLCB = 3.4e-08 
    PSCBE1 = 8.14e+08 
    PSCBE2 = 9.58e-07 
    PVAG =  1e-20 
    WR =      1 
    DWG =      0 
    DWB =      0 
    XW =      0 
    XWREF =      0 
    XL = -1.4e-08 
    XLREF = -1.4e-08 
    B0 =      0 
    B1 =      0 
    ALPHA0 =  0.074 
    ALPHA1 =  0.005 
    AGIDL = 0.0002 
    BGIDL = 2.1e+09 
    CGIDL = 0.0002 
    PHIN =      0 
    EGIDL =    0.8 
    AIGC =   0.69 
    BIGC = 0.0012 
    CIGC = 0.0008 
    AIGSD = 0.0087 
    BIGSD = 0.0012 
    CIGSD = 0.0008 
    AIGBACC =  0.012 
    BIGBACC = 0.0028 
    CIGBACC =  0.002 
    AIGBINV =  0.014 
    BIGBINV =  0.004 
    CIGBINV =  0.004 
    NIGC =      1 
    NIGBINV =      3 
    NIGBACC =      1 
    NTOX =      1 
    EIGBINV =    1.1 
    PIGCD =      1 
    POXEDGE =      1 
    XRCRG1 =     12 
    TNOIA =    1.5 
    TNOIB =    3.5 
    NTNOI =      1 
    XRCRG2 =      5 
    BETA0 =     30 
    IJTHDFWD =   0.01 
    IJTHSFWD =   0.01 
    IJTHDREV =  0.001 
    IJTHSREV =  0.001 
    XJBVD =      1 
    XJBVS =      1 
    BVD =     10 
    BVS =     10 
    VFB =   0.55 
    GBMIN =  1e-10 
    RBDB =     15 
    RBPB =      5 
    RBSB =     15 
    RBPS =     15 
    RBPD =     15 
    CGSL = 2.653e-10 
    CGDL = 2.653e-10 
    CKAPPAS =   0.03 
    CKAPPAD =   0.03 
    CF = 1.195e-10 
    CLC =  1e-07 
    CLE =    0.6 
    DWC =  5e-09 
    DLC = 2.7e-09 
    DLCIG = 2.7e-09 
    DWJ =      0 
    VFBCV =     -1 
    ACDE =      1 
    MOIN =     15 
    NOFF =    0.9 
    VOFFCV =   0.02 
    DMCG =      0 
    DMCI =      0 
    DMDG =      0 
    DMCGT =      0 
    XGW =      0 
    XGL =      0 
    RSHG =    0.4 
    NGCON =      1 
    TCJ =  0.001 
    TPB =  0.005 
    TCJSW =  0.001 
    TPBSW =  0.005 
    TCJSWG =  0.001 
    TPBSWG =  0.005 
    SK0 =      0 
    SK1 =      0 
    SK2 =      0 
    SL =  2e-06 
    SW =  2e-06 
    K =      0 
    TNOM =  300.1 
    CGSO = 8.5e-11 
    CGDO = 8.5e-11 
    CGBO = 2.56e-11 
    XPART =      0 
    RSH =      5 
    JSS = 0.0001 
    JSWS =  1e-11 
    JSWGS =  1e-10 
    PBS =      1 
    MJS =    0.5 
    PBSWS =      1 
    MJSWS =   0.33 
    CJS = 0.0005 
    CJSWS =  5e-10 
    NJS =      1 
    PBSWGS =      1 
    MJSWGS =   0.33 
    CJSWGS =  3e-10 
    XTIS =      3 
    JSD = 0.0001 
    JSWD =  1e-11 
    JSWGD =  1e-10 
    PBD =      1 
    MJD =    0.5 
    PBSWD =      1 
    MJSWD =   0.33 
    CJD = 0.0005 
    CJSWD =  5e-10 
    NJD =      1 
    PBSWGD =      1 
    MJSWGD =   0.33 
    CJSWGD =  5e-10 
    XTID =      3 
    LMLT =      1 
    WMLT =      1 
    LINT = 2.7e-09 
    LL =      0 
    LLC =      0 
    LLN =      1 
    LW =      0 
    LWC =      0 
    LWN =      1 
    LWL =      0 
    LWLC =      0 
    LMIN =      0 
    LMAX =      1 
    WINT =  5e-09 
    WL =      0 
    WLC =      0 
    WLN =      1 
    WW =      0 
    WWC =      0 
    WWN =      1 
    WWL =      0 
    WWLC =      0 
    WMIN =      0 
    WMAX =      1 
    NOIA = 6.188e+40 
    NOIB = 1.5e+25 
    NOIC = 8.75e+09 
    EM = 4.1e+07 
    EF =      1 
    AF =      1 
    KF =      0 
    TRS =      0 
    TRD =      0 
  **info** (part 3.sp:44) DC voltage reset to initial transient source value in source 0:va. new dc=0.0000D+00
  **warning** (nmos:m3 (part 3.sp:11)) Warning:  Acde = 0.263957 may be too small in BSIM4 model with w=5.12e-07 l=3.2e-08.
  
      
 **info** set option symb=1 internally to help for convergence.
 *****************************************************************
 ******  option summary
 ******
 runlvl  = 3         bypass  = 2.0000    
  Opening plot unit= 79
 file=C:\Users\IDEAL\Desktop\VLSI_P2\VLSI_P2\part 3.pa0

 **info** dc convergence successful at Newton-Raphson method 
 ******  
 **********************

 ****** operating point information tnom=  25.000 temp=  25.000 ******
 ****** operating point status is all       simulation time is     0.     
    node    =voltage      node    =voltage      node    =voltage

 +0:a       =   0.      0:i       =  97.0255m 0:j       =  97.0255m
 +0:k       =   1.7637  0:l       =  62.5400m 0:m       =   1.7848 
 +0:n       =  97.0870m 0:out1    =   1.7628  0:vdd     =   1.8000 
 +1:j       =   3.8866m 1:vdd     =   1.8000  2:i       =  32.3529m
 +2:j       =  64.6706m 2:vdd     =   1.8000  3:i       =  32.3529m
 +3:j       =  64.6706m 3:vdd     =   1.8000  4:i       =  32.3732m
 +4:j       =  64.7114m 4:vdd     =   1.8000  5:j       =   1.7822 
 +5:vdd     =   1.8000  6:j       =   1.7817  6:vdd     =   1.8000 
 +7:vdd     =   1.8000 


 **** voltage sources

 subckt                         x1         x2         x3         x4        
 element  0:va       0:vsup1    1:vsup2    2:vsup2    3:vsup2    4:vsup2   
  volts      0.         1.8000     1.8000     1.8000     1.8000     1.8000 
  current  144.8593n   -4.5354u  -14.8857u -130.0602u -130.0602u -130.0053u
  power      0.         8.1637u   26.7943u  234.1083u  234.1083u  234.0095u

 subckt   x5         x6         x7        
 element  5:vsup2    6:vsup2    7:vsup2   
  volts      1.8000     1.8000     1.8000 
  current  -52.7633u  -54.0019u -625.7373u
  power     94.9739u   97.2034u    1.1263m

     total voltage source power dissipation=    2.0557m       watts




 **** mosfets


 subckt   x1         x1         x1         x1         x2         x2        
 element  1:m1       1:m2       1:m3       1:m4       2:m1       2:m2      
 model    0:pmos     0:pmos     0:nmos     0:nmos     0:pmos     0:pmos    
 region   Linear     Cutoff     Subth      Linear     Saturation Saturation
  id       -14.8801u  -75.3253p   10.4087u   10.6533u  -48.7559u  -39.2298u
  ibs     -8.950e-21 -1.913e-26   -3.8870f  4.668e-21   -1.9302a   -1.7060a
  ibd       19.6966f   19.6966f   -1.7948p   -5.2905f    1.7130p    1.7130p
  vgs       -1.8000     0.        -3.8866m    1.8000   -15.2254m    0.     
  vds      -15.2254m  -15.2254m    1.7809     3.8866m   -1.7030    -1.7030 
  vbs        0.         0.        -3.8866m    0.         0.         0.     
  vth     -426.7271m -426.7271m  103.5660m  494.0428m   28.0371m   28.0370m
  vdsat   -866.9743m  -46.1929m   41.2137m  641.8234m  -87.2742m  -80.8645m
  vod       -1.3733   426.7271m -107.4525m    1.3060   -43.2625m  -28.0370m
  beta       1.0318m    1.4604m   41.2940m   12.9024m    3.3197m    3.3091m
  gam eff  400.0000m  400.0000m  400.0000m  400.0000m  400.0000m  400.0000m
  gm         3.8124u    1.7953n  190.4409u  599.8326n  673.2486u  578.3375u
  gds      971.7254u    4.4379n   53.0350u    2.7364m  317.3313u  265.5780u
  gmb        2.3169u  460.2322p   39.6656u  575.3071n  130.7176u  112.1611u
  cdtot    740.5218a  439.4157a  295.0661a  754.9697a  291.2311a  292.1887a
  cgtot    662.7700a  413.2279a  345.9472a  641.7489a  392.1030a  379.6242a
  cstot    647.5560a  597.0932a  599.0480a  628.3036a  645.5564a  634.3170a
  cbtot    698.5099a  702.7387a  633.1686a  701.4048a  633.9764a  634.2382a
  cgs      385.5300a  188.3138a  192.2318a  353.8936a  261.7767a  244.7994a
  cgd      277.4353a  185.1860a  112.1145a  289.2234a   99.4338a  101.9593a



 subckt   x2         x2         x2         x2         x3         x3        
 element  2:m3       2:m4       2:m5       2:m6       3:m1       3:m2      
 model    0:pmos     0:nmos     0:nmos     0:nmos     0:pmos     0:pmos    
 region   Saturation Linear     Linear     Linear     Saturation Saturation
  id       -39.2298u  130.3022u  130.8623u  131.5296u  -48.7559u  -39.2298u
  ibs       -1.7060a  -64.7264f  -32.3964f  7.373e-21   -1.9302a   -1.7060a
  ibd        1.7130p -106.7965f  -73.8637f  -39.5143f    1.7130p    1.7130p
  vgs        0.         1.7201     1.7676     1.8000   -15.2254m    0.     
  vds       -1.7030    32.3549m   32.3177m   32.3529m   -1.7030    -1.7030 
  vbs        0.       -64.6706m  -32.3529m    0.         0.         0.     
  vth       28.0370m  500.3422m  494.1252m  487.7754m   28.0371m   28.0370m
  vdsat    -80.8645m  606.2484m  629.1876m  645.5741m  -87.2742m  -80.8645m
  vod      -28.0370m    1.2198     1.2735     1.3122   -43.2625m  -28.0370m
  beta       3.3091m   20.1573m   19.7816m   19.5572m    3.3197m    3.3091m
  gam eff  400.0000m  400.0000m  400.0000m  400.0000m  400.0000m  400.0000m
  gm       578.3375u   10.3369u    9.2772u    8.5900u  673.2486u  578.3375u
  gds      265.5780u    3.9656m    3.9899m    4.0075m  317.3313u  265.5780u
  gmb      112.1611u    7.6029u    7.3929u    7.2996u  130.7176u  112.1611u
  cdtot    292.1887a    1.0973f    1.1048f    1.1112f  291.2311a  292.1887a
  cgtot    379.6242a  968.7783a  968.5767a  968.4504a  392.1030a  379.6242a
  cstot    634.3170a  951.2492a  955.7618a  961.2474a  645.5564a  634.3170a
  cbtot    634.2382a    1.0267f    1.0374f    1.0484f  633.9764a  634.2382a
  cgs      244.7994a  544.1550a  542.9840a  542.2128a  261.7767a  244.7994a
  cgd      101.9593a  426.1538a  427.3920a  428.2542a   99.4338a  101.9593a



 subckt   x3         x3         x3         x3         x4         x4        
 element  3:m3       3:m4       3:m5       3:m6       4:m1       4:m2      
 model    0:pmos     0:nmos     0:nmos     0:nmos     0:pmos     0:pmos    
 region   Saturation Linear     Linear     Linear     Saturation Saturation
  id       -39.2298u  130.3022u  130.8623u  131.5296u  -48.7364u  -39.2135u
  ibs       -1.7060a  -64.7264f  -32.3964f  7.373e-21   -1.9284a   -1.7044a
  ibd        1.7130p -106.7965f  -73.8637f  -39.5143f    1.7129p    1.7129p
  vgs        0.         1.7201     1.7676     1.8000   -15.2254m    0.     
  vds       -1.7030    32.3549m   32.3177m   32.3529m   -1.7029    -1.7029 
  vbs        0.       -64.6706m  -32.3529m    0.         0.         0.     
  vth       28.0370m  500.3422m  494.1252m  487.7754m   28.0205m   28.0205m
  vdsat    -80.8645m  606.2484m  629.1876m  645.5741m  -87.2674m  -80.8582m
  vod      -28.0370m    1.2198     1.2735     1.3122   -43.2459m  -28.0205m
  beta       3.3091m   20.1573m   19.7816m   19.5572m    3.3196m    3.3089m
  gam eff  400.0000m  400.0000m  400.0000m  400.0000m  400.0000m  400.0000m
  gm       578.3375u   10.3369u    9.2772u    8.5900u  673.0313u  578.1375u
  gds      265.5780u    3.9656m    3.9899m    4.0075m  317.2213u  265.4808u
  gmb      112.1611u    7.6029u    7.3929u    7.2996u  130.6748u  112.1219u
  cdtot    292.1887a    1.0973f    1.1048f    1.1112f  291.2338a  292.1914a
  cgtot    379.6242a  968.7783a  968.5767a  968.4504a  392.0927a  379.6142a
  cstot    634.3170a  951.2492a  955.7618a  961.2474a  645.5475a  634.3082a
  cbtot    634.2382a    1.0267f    1.0374f    1.0484f  633.9776a  634.2394a
  cgs      244.7994a  544.1550a  542.9840a  542.2128a  261.7617a  244.7849a
  cgd      101.9593a  426.1538a  427.3920a  428.2542a   99.4368a  101.9623a



 subckt   x4         x4         x4         x4         x5         x5        
 element  4:m3       4:m4       4:m5       4:m6       5:m1       5:m2      
 model    0:pmos     0:nmos     0:nmos     0:nmos     0:pmos     0:pmos    
 region   Saturation Linear     Linear     Linear     Linear     Linear    
  id       -39.2135u  130.3837u  130.9436u  131.6109u  -52.7373u  -52.7410u
  ibs       -1.7044a  -64.7672f  -32.4167f  7.373e-21   17.8991f -2.743e-20
  ibd        1.7129p -106.8585f  -73.9058f  -39.5368f   43.8841f   22.8441f
  vgs        0.         1.7201     1.7676     1.8000    -1.6851    -1.8000 
  vds       -1.7029    32.3756m   32.3382m   32.3732m  -18.4786m  -17.8383m
  vbs        0.       -64.7114m  -32.3732m    0.        17.8383m    0.     
  vth       28.0205m  500.3454m  494.1247m  487.7709m -429.0998m -426.0231m
  vdsat    -80.8582m  606.2295m  629.1792m  645.5759m -807.3857m -867.8276m
  vod      -28.0205m    1.2197     1.2735     1.3122    -1.2560    -1.3740 
  beta       3.3089m   20.1576m   19.7818m   19.5573m    3.2669m    3.1376m
  gam eff  400.0000m  400.0000m  400.0000m  400.0000m  400.0000m  400.0000m
  gm       578.1375u   10.3454u    9.2844u    8.5962u   16.1868u   13.4937u
  gds      265.4808u    3.9655m    3.9898m    4.0074m    2.8327m    2.9369m
  gmb      112.1219u    7.6081u    7.3977u    7.3043u    8.7904u    8.1792u
  cdtot    292.1914a    1.0973f    1.1048f    1.1112f    2.2173f    2.2370f
  cgtot    379.6142a  968.7779a  968.5763a  968.4501a    2.0168f    2.0140f
  cstot    634.3082a  951.2567a  955.7714a  961.2598a    1.9558f    1.9546f
  cbtot    634.2394a    1.0267f    1.0374f    1.0484f    2.0828f    2.0953f
  cgs      244.7849a  544.1627a  542.9907a  542.2187a    1.1789f    1.1731f
  cgd      101.9623a  426.1453a  427.3846a  428.2476a  838.1673a  842.0987a



 subckt   x5         x5         x6         x6         x6         x6        
 element  5:m3       5:m4       6:m1       6:m2       6:m3       6:m4      
 model    0:nmos     0:nmos     0:pmos     0:pmos     0:nmos     0:nmos    
 region   Subth      Subth      Linear     Linear     Subth      Subth     
  id        37.0555u    7.7430u  -53.9759u  -53.9797u   36.9273u    7.7091u
  ibs       11.3374a    3.2741a   18.3219f -2.745e-20   11.2052a    3.2339a
  ibd       -1.7737p   -1.7737p   44.8274f   23.3472f   -1.7728p   -1.7728p
  vgs       97.0870m    0.        -1.6847    -1.8000    97.0870m    0.     
  vds        1.7637     1.7637   -18.9197m  -18.2601m    1.7628     1.7628 
  vbs        0.         0.        18.2601m    0.         0.         0.     
  vth      106.5837m  106.5868m -429.0573m -425.9094m  106.7737m  106.7769m
  vdsat     55.6749m   41.2852m -807.1980m -867.8653m   55.6326m   41.2721m
  vod       -9.4967m -106.5868m   -1.2556    -1.3741    -9.6867m -106.7769m
  beta      30.3362m   30.6735m    3.2675m    3.1378m   30.3314m   30.6682m
  gam eff  400.0000m  400.0000m  400.0000m  400.0000m  400.0000m  400.0000m
  gm       507.5471u  141.4144u   16.5870u   13.8159u  506.2015u  140.8534u
  gds      148.7420u   39.3338u    2.8311m    2.9359m  148.3076u   39.1719u
  gmb      100.7283u   29.5071u    8.9978u    8.3711u  100.4699u   29.3941u
  cdtot    219.7423a  221.1292a    2.2164f    2.2363f  219.7653a  221.1464a
  cgtot    288.3979a  258.5143a    2.0168f    2.0140f  288.3255a  258.5062a
  cstot    478.4638a  449.3634a    1.9561f    1.9550f  478.4004a  449.3540a
  cbtot    473.8275a  475.4799a    2.0823f    2.0952f  473.8407a  475.4937a
  cgs      183.1465a  143.8836a    1.1791f    1.1733f  183.0412a  143.8689a
  cgd       79.7991a   83.5680a  837.9092a  841.8938a   79.8178a   83.5724a



 subckt   x7         x7        
 element  7:m1       7:m2      
 model    0:pmos     0:nmos    
 region   Saturation Linear    
  id      -610.4774u  626.4193u
  ibs      -28.9505a  1.456e-20
  ibd        1.7474p  -71.6633f
  vgs      -37.1798m    1.7628 
  vds       -1.7375    62.5400m
  vbs        0.         0.     
  vth       37.3390m  481.1291m
  vdsat   -101.5293m  633.7551m
  vod      -74.5188m    1.2817 
  beta      25.9391m   50.3631m
  gam eff  400.0000m  400.0000m
  gm         7.2215m   50.2478u
  gds        3.6188m    9.7324m
  gmb        1.4145m   36.8100u
  cdtot      2.1774f    2.7004f
  cgtot      3.1644f    2.4386f
  cstot      5.0226f    2.4635f
  cbtot      4.7497f    2.6111f
  cgs        2.2380f    1.3934f
  cgd      719.5771a    1.0498f



 ******
 **********************

 ****** transient analysis tnom=  25.000 temp=  25.000 ******
 tf=  25.9044p  targ= 200.0459n   trig= 200.0200n
 tr=  28.9750p  targ= 400.0447n   trig= 400.0157n

          ***** job concluded
 ******  
 **********************

 ****** job statistics summary tnom=  25.000 temp=  25.000 ******

  ******  HSPICE Threads Information  ******

  Command Line Threads Count :     1
  Available CPU Count        :     2
  Actual Threads Count       :     1


  ******  Circuit Statistics  ******
  # nodes       =     154 # elements   =      41
  # resistors   =       0 # capacitors =       0 # inductors   =       0
  # mutual_inds =       0 # vccs       =       0 # vcvs        =       0
  # cccs        =       0 # ccvs       =       0 # volt_srcs   =       9
  # curr_srcs   =       0 # diodes     =       0 # bjts        =       0
  # jfets       =       0 # mosfets    =      32 # U elements  =       0
  # T elements  =       0 # W elements =       0 # B elements  =       0
  # S elements  =       0 # P elements =       0 # va device   =       0
  # vector_srcs =       0 # N elements =       0


  ******  Runtime Statistics (seconds)  ******

  analysis           time    # points   tot. iter  conv.iter
  op point           0.00           1           7
  transient          0.04     2000001        1056         410 rev=        13
  readin             0.01
  errchk             0.01
  setup              0.00
  output             0.00


           peak memory used         61.05 megabytes
           total cpu time            0.07 seconds
           total elapsed time        0.09 seconds
           job started at     21:47:20 05/07/2024
           job ended   at     21:47:20 05/07/2024
           job total runtime         0.09 seconds


  lic: Release hspice token(s) 
 lic: total license checkout elapse time:        0.02(s)
